46

Sr      5.996000000000000      3.814800000000000      10.24000000000000
Sr      2.818400000000000      1.790800000000000      10.36330000000000
Sr      0.170100000000000      0.108200000000000      13.59760000000000
Sr      6.499800000000000      0.094200000000000      11.78890000000000
Sr      12.38060000000000      3.835500000000000      8.426600000000000
Sr      9.169200000000000      1.791900000000000      8.568200000000000
Sr      6.025500000000000      3.833800000000000      13.69300000000000
Sr      2.960700000000000      1.883600000000000      13.65950000000000
Sr      0.056200000000000      0.035800000000000      17.29410000000000
Sr      6.409400000000000      0.036000000000000      15.50520000000000
Sr      12.38250000000000      3.836400000000000      11.90850000000000
Sr      9.309900000000000      1.881400000000000      11.88590000000000
Sr      6.053000000000000      3.851100000000000      17.15450000000000
Sr      2.843300000000000      1.809100000000000      17.36330000000000
Sr      0.200400000000000      0.127200000000000      20.61690000000000
Sr      6.553400000000000      0.128000000000000      18.83020000000000
Sr      12.40630000000000      3.851600000000000      15.36770000000000
Sr      9.195400000000000      1.808600000000000      15.57660000000000
O       8.430300000000000      0.297200000000000      10.10680000000000
O       11.36160000000000      2.022300000000000      10.05170000000000
O       16.64380000000000      3.715400000000000      8.266800000000000
O       13.83980000000000      1.767500000000000      8.325300000000000
O       5.032600000000000      1.993800000000000      11.83950000000000
O       2.081300000000000      0.279000000000000      11.89850000000000
O       7.502400000000000      1.755400000000000      10.10690000000000
O       10.30700000000000      3.680300000000000      10.05150000000000
O       8.280300000000000      0.303700000000001      13.70120000000000
O       14.28420000000000      4.141300000000000      10.10890000000000
O       11.30270000000000      2.241600000000000      13.71980000000000
O       16.83190000000000      3.535900000000000      11.93320000000000
O       13.79540000000000      1.616300000000000      11.91210000000000
O       19.81610000000000      5.432800000000001      8.318100000000000
O       4.950800000000000      2.239400000000000      15.50660000000000
O       1.925600000000001      0.302300000000001      15.48540000000000
O       7.933300000000000      4.139100000000000      11.89130000000000
O       7.444800000000000      1.617200000000000      13.70130000000000
O       13.46460000000000      5.429700000000000      10.10890000000000
O       10.48060000000000      3.533700000000000      13.71980000000000
O       8.217500000000000      0.170600000000000      17.29100000000000
O       14.45070000000000      4.000100000000000      13.77740000000000
O       13.64950000000000      1.618100000000000      15.50390000000000
O       10.71440000000000     -0.111600000000000      15.56390000000000
O       1.865600000000000      0.169400000000000      19.07730000000000
O       8.099500000000000      3.998000000000001      15.56400000000000
O       7.297600000000000      1.616800000000000      17.29100000000000
O       4.363100000000000     -0.114300000000000      17.35070000000000